REMARK VINA RESULT:      -7.3      1.612      1.997
REMARK  4 active torsions:
REMARK  status: ('A' for Active; 'I' for Inactive)
REMARK    1  A    between atoms: C1_1  and  N13_22 
REMARK    2  A    between atoms: C2_2  and  O11_20 
REMARK    3  A    between atoms: C10_10  and  N14_11 
REMARK    4  A    between atoms: N14_11  and  C15_12 
ROOT
HETATM    1  C1  1C9 A9001       1.019 -49.782 -19.620  1.00 83.47     0.060 A 
HETATM    2  C2  1C9 A9001       0.600 -50.638 -18.549  1.00 83.68     0.096 A 
HETATM    3  C3  1C9 A9001       0.069 -51.938 -18.840  1.00 82.47     0.071 A 
HETATM    4  C4  1C9 A9001      -0.062 -52.419 -20.150  1.00 82.50     0.075 A 
HETATM    5  C5  1C9 A9001       0.351 -51.571 -21.245  1.00 84.12     0.041 A 
HETATM    6  C6  1C9 A9001       0.888 -50.257 -20.957  1.00 83.53     0.049 A 
HETATM    7  N7  1C9 A9001      -0.575 -53.666 -20.328  1.00 81.78    -0.241 NA
HETATM    8  C8  1C9 A9001      -0.689 -54.114 -21.605  1.00 83.59     0.236 A 
HETATM    9  N9  1C9 A9001      -0.342 -53.427 -22.719  1.00 84.30    -0.224 NA
HETATM   10  C10 1C9 A9001       0.182 -52.150 -22.553  1.00 85.59     0.142 A 
ENDROOT
BRANCH   1  11
HETATM   11  N13 1C9 A9001       1.550 -48.493 -19.375  1.00 82.67    -0.397 N 
HETATM   12  H11 1C9 A9001       1.119 -47.638 -19.851  1.00 85.48     0.156 HD
HETATM   13  H12 1C9 A9001       2.382 -48.375 -18.713  1.00 85.48     0.156 HD
ENDBRANCH   1  11
BRANCH   2  14
HETATM   14  O11 1C9 A9001       0.757 -50.111 -17.270  1.00 85.44    -0.354 OA
HETATM   15  C12 1C9 A9001      -0.395 -50.042 -16.422  1.00 84.41     0.210 C 
ENDBRANCH   2  14
BRANCH  10  16
HETATM   16  N14 1C9 A9001       0.560 -51.391 -23.717  1.00 86.44    -0.340 N 
HETATM   17  H4  1C9 A9001       0.958 -50.413 -23.544  1.00 85.48     0.167 HD
BRANCH  16  18
HETATM   18  C15 1C9 A9001       0.457 -51.808 -25.074  1.00 87.38     0.035 A 
HETATM   19  C16 1C9 A9001       1.618 -52.139 -25.846  1.00 88.13     0.056 A 
HETATM   20  C17 1C9 A9001       1.509 -52.547 -27.195  1.00 88.88     0.074 A 
HETATM   21  C18 1C9 A9001       0.225 -52.627 -27.798  1.00 88.55     0.138 A 
HETATM   22 CL   1C9 A9001       2.946 -52.929 -28.080  1.00 89.26    -0.081 Cl
HETATM   23  C19 1C9 A9001      -0.948 -52.308 -27.056  1.00 87.62     0.046 A 
HETATM   24  F21 1C9 A9001       0.103 -53.010 -29.080  1.00 88.92    -0.204 F 
HETATM   25  C20 1C9 A9001      -0.833 -51.897 -25.699  1.00 87.82     0.032 A 
ENDBRANCH  16  18
ENDBRANCH  10  16
TORSDOF 4
