REMARK VINA RESULT:      -6.8      1.907      2.326
REMARK  4 active torsions:
REMARK  status: ('A' for Active; 'I' for Inactive)
REMARK    1  A    between atoms: C1_1  and  N13_22 
REMARK    2  A    between atoms: C2_2  and  O11_20 
REMARK    3  A    between atoms: C10_10  and  N14_11 
REMARK    4  A    between atoms: N14_11  and  C15_12 
ROOT
HETATM    1  C1  1C9 A9001       1.812 -49.730 -21.110  1.00 83.47     0.060 A 
HETATM    2  C2  1C9 A9001       2.062 -50.273 -19.807  1.00 83.68     0.096 A 
HETATM    3  C3  1C9 A9001       1.600 -51.592 -19.483  1.00 82.47     0.071 A 
HETATM    4  C4  1C9 A9001       0.901 -52.389 -20.401  1.00 82.50     0.075 A 
HETATM    5  C5  1C9 A9001       0.636 -51.859 -21.719  1.00 84.12     0.041 A 
HETATM    6  C6  1C9 A9001       1.101 -50.527 -22.051  1.00 83.53     0.049 A 
HETATM    7  N7  1C9 A9001       0.504 -53.627 -20.003  1.00 81.78    -0.241 NA
HETATM    8  C8  1C9 A9001      -0.167 -54.384 -20.909  1.00 83.59     0.236 A 
HETATM    9  N9  1C9 A9001      -0.481 -54.014 -22.174  1.00 84.30    -0.224 NA
HETATM   10  C10 1C9 A9001      -0.084 -52.749 -22.593  1.00 85.59     0.142 A 
ENDROOT
BRANCH   1  11
HETATM   11  N13 1C9 A9001       2.254 -48.434 -21.469  1.00 82.67    -0.397 N 
HETATM   12  H11 1C9 A9001       3.275 -48.275 -21.747  1.00 85.48     0.156 HD
HETATM   13  H12 1C9 A9001       1.567 -47.614 -21.463  1.00 85.48     0.156 HD
ENDBRANCH   1  11
BRANCH   2  14
HETATM   14  O11 1C9 A9001       2.763 -49.441 -18.938  1.00 85.44    -0.354 OA
HETATM   15  C12 1C9 A9001       4.080 -49.839 -18.539  1.00 84.41     0.210 C 
ENDBRANCH   2  14
BRANCH  10  16
HETATM   16  N14 1C9 A9001      -0.403 -52.321 -23.931  1.00 86.44    -0.340 N 
HETATM   17  H4  1C9 A9001      -1.333 -51.808 -24.062  1.00 85.48     0.167 HD
BRANCH  16  18
HETATM   18  C15 1C9 A9001       0.391 -52.513 -25.096  1.00 87.38     0.035 A 
HETATM   19  C16 1C9 A9001      -0.185 -52.491 -26.408  1.00 88.13     0.056 A 
HETATM   20  C17 1C9 A9001       0.609 -52.689 -27.561  1.00 88.88     0.074 A 
HETATM   21  C18 1C9 A9001       2.003 -52.916 -27.416  1.00 88.55     0.138 A 
HETATM   22 CL   1C9 A9001      -0.144 -52.656 -29.119  1.00 89.26    -0.081 Cl
HETATM   23  C19 1C9 A9001       2.607 -52.941 -26.127  1.00 87.62     0.046 A 
HETATM   24  F21 1C9 A9001       2.772 -53.109 -28.501  1.00 88.92    -0.204 F 
HETATM   25  C20 1C9 A9001       1.803 -52.743 -24.969  1.00 87.82     0.032 A 
ENDBRANCH  16  18
ENDBRANCH  10  16
TORSDOF 4
