REMARK VINA RESULT:      -8.0      0.000      0.000
REMARK  4 active torsions:
REMARK  status: ('A' for Active; 'I' for Inactive)
REMARK    1  A    between atoms: C1_1  and  N13_22 
REMARK    2  A    between atoms: C2_2  and  O11_20 
REMARK    3  A    between atoms: C10_10  and  N14_11 
REMARK    4  A    between atoms: N14_11  and  C15_12 
ROOT
HETATM    1  C1  1C9 A9001       0.631 -50.817 -20.150  1.00 83.47     0.060 A 
HETATM    2  C2  1C9 A9001       0.077 -51.720 -19.185  1.00 83.68     0.096 A 
HETATM    3  C3  1C9 A9001      -0.503 -52.959 -19.617  1.00 82.47     0.071 A 
HETATM    4  C4  1C9 A9001      -0.554 -53.333 -20.967  1.00 82.50     0.075 A 
HETATM    5  C5  1C9 A9001      -0.004 -52.436 -21.957  1.00 84.12     0.041 A 
HETATM    6  C6  1C9 A9001       0.583 -51.183 -21.526  1.00 83.53     0.049 A 
HETATM    7  N7  1C9 A9001      -1.122 -54.529 -21.280  1.00 81.78    -0.241 NA
HETATM    8  C8  1C9 A9001      -1.157 -54.873 -22.593  1.00 83.59     0.236 A 
HETATM    9  N9  1C9 A9001      -0.681 -54.131 -23.621  1.00 84.30    -0.224 NA
HETATM   10  C10 1C9 A9001      -0.099 -52.905 -23.315  1.00 85.59     0.142 A 
ENDROOT
BRANCH   1  11
HETATM   11  N13 1C9 A9001       1.214 -49.587 -19.764  1.00 82.67    -0.397 N 
HETATM   12  H11 1C9 A9001       0.819 -48.666 -20.139  1.00 85.48     0.156 HD
HETATM   13  H12 1C9 A9001       2.050 -49.577 -19.097  1.00 85.48     0.156 HD
ENDBRANCH   1  11
BRANCH   2  14
HETATM   14  O11 1C9 A9001       0.159 -51.300 -17.860  1.00 85.44    -0.354 OA
HETATM   15  C12 1C9 A9001      -0.742 -51.882 -16.911  1.00 84.41     0.210 C 
ENDBRANCH   2  14
BRANCH  10  16
HETATM   16  N14 1C9 A9001       0.416 -52.088 -24.383  1.00 86.44    -0.340 N 
HETATM   17  H4  1C9 A9001       0.994 -51.234 -24.099  1.00 85.48     0.167 HD
BRANCH  16  18
HETATM   18  C15 1C9 A9001       0.235 -52.301 -25.779  1.00 87.38     0.035 A 
HETATM   19  C16 1C9 A9001      -1.071 -52.318 -26.371  1.00 88.13     0.056 A 
HETATM   20  C17 1C9 A9001      -1.244 -52.537 -27.756  1.00 88.88     0.074 A 
HETATM   21  C18 1C9 A9001      -0.104 -52.748 -28.577  1.00 88.55     0.138 A 
HETATM   22 CL   1C9 A9001      -2.845 -52.551 -28.415  1.00 89.26    -0.081 Cl
HETATM   23  C19 1C9 A9001       1.206 -52.734 -28.020  1.00 87.62     0.046 A 
HETATM   24  F21 1C9 A9001      -0.251 -52.961 -29.896  1.00 88.92    -0.204 F 
HETATM   25  C20 1C9 A9001       1.375 -52.514 -26.624  1.00 87.82     0.032 A 
ENDBRANCH  16  18
ENDBRANCH  10  16
TORSDOF 4
