REMARK VINA RESULT:      -7.5      5.193      8.730
REMARK  4 active torsions:
REMARK  status: ('A' for Active; 'I' for Inactive)
REMARK    1  A    between atoms: C1_1  and  N13_22 
REMARK    2  A    between atoms: C2_2  and  O11_20 
REMARK    3  A    between atoms: C10_10  and  N14_11 
REMARK    4  A    between atoms: N14_11  and  C15_12 
ROOT
HETATM    1  C1  1C9 A9001      -1.109 -54.245 -21.999  1.00 83.47     0.060 A 
HETATM    2  C2  1C9 A9001      -0.292 -53.499 -22.911  1.00 83.68     0.096 A 
HETATM    3  C3  1C9 A9001       0.543 -52.441 -22.420  1.00 82.47     0.071 A 
HETATM    4  C4  1C9 A9001       0.597 -52.097 -21.062  1.00 82.50     0.075 A 
HETATM    5  C5  1C9 A9001      -0.220 -52.835 -20.126  1.00 84.12     0.041 A 
HETATM    6  C6  1C9 A9001      -1.066 -53.905 -20.617  1.00 83.53     0.049 A 
HETATM    7  N7  1C9 A9001       1.421 -51.081 -20.690  1.00 81.78    -0.241 NA
HETATM    8  C8  1C9 A9001       1.461 -50.768 -19.369  1.00 83.59     0.236 A 
HETATM    9  N9  1C9 A9001       0.751 -51.374 -18.388  1.00 84.30    -0.224 NA
HETATM   10  C10 1C9 A9001      -0.097 -52.414 -18.755  1.00 85.59     0.142 A 
ENDROOT
BRANCH   1  11
HETATM   11  N13 1C9 A9001      -1.944 -55.298 -22.444  1.00 82.67    -0.397 N 
HETATM   12  H11 1C9 A9001      -2.429 -55.933 -21.733  1.00 85.48     0.156 HD
HETATM   13  H12 1C9 A9001      -2.090 -55.458 -23.492  1.00 85.48     0.156 HD
ENDBRANCH   1  11
BRANCH   2  14
HETATM   14  O11 1C9 A9001      -0.382 -53.886 -24.246  1.00 85.44    -0.354 OA
HETATM   15  C12 1C9 A9001      -0.631 -52.873 -25.227  1.00 84.41     0.210 C 
ENDBRANCH   2  14
BRANCH  10  16
HETATM   16  N14 1C9 A9001      -0.869 -53.080 -17.738  1.00 86.44    -0.340 N 
HETATM   17  H4  1C9 A9001      -0.630 -54.105 -17.547  1.00 85.48     0.167 HD
BRANCH  16  18
HETATM   18  C15 1C9 A9001      -1.917 -52.513 -16.959  1.00 87.38     0.035 A 
HETATM   19  C16 1C9 A9001      -1.696 -51.370 -16.123  1.00 88.13     0.056 A 
HETATM   20  C17 1C9 A9001      -2.740 -50.817 -15.347  1.00 88.88     0.074 A 
HETATM   21  C18 1C9 A9001      -4.032 -51.405 -15.395  1.00 88.55     0.138 A 
HETATM   22 CL   1C9 A9001      -2.412 -49.439 -14.352  1.00 89.26    -0.081 Cl
HETATM   23  C19 1C9 A9001      -4.284 -52.539 -16.219  1.00 87.62     0.046 A 
HETATM   24  F21 1C9 A9001      -5.035 -50.893 -14.662  1.00 88.92    -0.204 F 
HETATM   25  C20 1C9 A9001      -3.230 -53.093 -16.997  1.00 87.82     0.032 A 
ENDBRANCH  16  18
ENDBRANCH  10  16
TORSDOF 4
