REMARK  4 active torsions:
REMARK  status: ('A' for Active; 'I' for Inactive)
REMARK    1  A    between atoms: C1_1  and  N13_22 
REMARK    2  A    between atoms: C2_2  and  O11_20 
REMARK    3  A    between atoms: C10_10  and  N14_11 
REMARK    4  A    between atoms: N14_11  and  C15_12 
ROOT
HETATM    1  C1  1C9 A9001       0.594 -51.503 -19.833  1.00 83.47     0.060 A 
HETATM    2  C2  1C9 A9001      -0.212 -52.281 -18.938  1.00 83.68     0.096 A 
HETATM    3  C3  1C9 A9001      -0.998 -53.368 -19.447  1.00 82.47     0.071 A 
HETATM    4  C4  1C9 A9001      -1.014 -53.710 -20.806  1.00 82.50     0.075 A 
HETATM    5  C5  1C9 A9001      -0.211 -52.937 -21.726  1.00 84.12     0.041 A 
HETATM    6  C6  1C9 A9001       0.585 -51.838 -21.217  1.00 83.53     0.049 A 
HETATM    7  N7  1C9 A9001      -1.789 -54.758 -21.195  1.00 81.78    -0.241 NA
HETATM    8  C8  1C9 A9001      -1.786 -55.075 -22.515  1.00 83.59     0.236 A 
HETATM    9  N9  1C9 A9001      -1.084 -54.438 -23.482  1.00 84.30    -0.224 NA
HETATM   10  C10 1C9 A9001      -0.289 -53.363 -23.099  1.00 85.59     0.142 A 
ENDROOT
BRANCH   1  11
HETATM   11  N13 1C9 A9001       1.385 -50.425 -19.370  1.00 82.67    -0.397 N 
HETATM   12  H11 1C9 A9001       1.391 -50.174 -18.330  1.00 85.48     0.156 HD
HETATM   13  H12 1C9 A9001       1.977 -49.861 -20.060  1.00 85.48     0.156 HD
ENDBRANCH   1  11
BRANCH   2  14
HETATM   14  O11 1C9 A9001      -0.154 -51.900 -17.600  1.00 85.44    -0.354 OA
HETATM   15  C12 1C9 A9001      -1.324 -52.084 -16.795  1.00 84.41     0.210 C 
ENDBRANCH   2  14
BRANCH  10  16
HETATM   16  N14 1C9 A9001       0.470 -52.661 -24.102  1.00 86.44    -0.340 N 
HETATM   17  H4  1C9 A9001       1.256 -52.025 -23.752  1.00 85.48     0.167 HD
BRANCH  16  18
HETATM   18  C15 1C9 A9001       0.281 -52.727 -25.511  1.00 87.38     0.035 A 
HETATM   19  C16 1C9 A9001      -1.027 -52.677 -26.095  1.00 88.13     0.056 A 
HETATM   20  C17 1C9 A9001      -1.208 -52.750 -27.495  1.00 88.88     0.074 A 
HETATM   21  C18 1C9 A9001      -0.073 -52.878 -28.339  1.00 88.55     0.138 A 
HETATM   22 CL   1C9 A9001      -2.812 -52.689 -28.143  1.00 89.26    -0.081 Cl
HETATM   23  C19 1C9 A9001       1.240 -52.928 -27.790  1.00 87.62     0.046 A 
HETATM   24  F21 1C9 A9001      -0.227 -52.952 -29.672  1.00 88.92    -0.204 F 
HETATM   25  C20 1C9 A9001       1.417 -52.855 -26.380  1.00 87.82     0.032 A 
ENDBRANCH  16  18
ENDBRANCH  10  16
TORSDOF 4
