REMARK VINA RESULT:      -7.2      2.534      3.291
REMARK  4 active torsions:
REMARK  status: ('A' for Active; 'I' for Inactive)
REMARK    1  A    between atoms: C1_1  and  N13_22 
REMARK    2  A    between atoms: C2_2  and  O11_20 
REMARK    3  A    between atoms: C10_10  and  N14_11 
REMARK    4  A    between atoms: N14_11  and  C15_12 
ROOT
HETATM    1  C1  1C9 A9001       2.939 -49.283 -23.551  1.00 83.47     0.060 A 
HETATM    2  C2  1C9 A9001       2.413 -48.698 -22.352  1.00 83.68     0.096 A 
HETATM    3  C3  1C9 A9001       1.395 -49.384 -21.610  1.00 82.47     0.071 A 
HETATM    4  C4  1C9 A9001       0.880 -50.623 -22.012  1.00 82.50     0.075 A 
HETATM    5  C5  1C9 A9001       1.393 -51.230 -23.219  1.00 84.12     0.041 A 
HETATM    6  C6  1C9 A9001       2.423 -50.542 -23.973  1.00 83.53     0.049 A 
HETATM    7  N7  1C9 A9001      -0.084 -51.198 -21.243  1.00 81.78    -0.241 NA
HETATM    8  C8  1C9 A9001      -0.565 -52.401 -21.649  1.00 83.59     0.236 A 
HETATM    9  N9  1C9 A9001      -0.176 -53.079 -22.754  1.00 84.30    -0.224 NA
HETATM   10  C10 1C9 A9001       0.807 -52.502 -23.551  1.00 85.59     0.142 A 
ENDROOT
BRANCH   1  11
HETATM   11  N13 1C9 A9001       3.946 -48.640 -24.309  1.00 82.67    -0.397 N 
HETATM   12  H11 1C9 A9001       4.900 -49.107 -24.436  1.00 85.48     0.156 HD
HETATM   13  H12 1C9 A9001       3.753 -47.687 -24.755  1.00 85.48     0.156 HD
ENDBRANCH   1  11
BRANCH   2  14
HETATM   14  O11 1C9 A9001       2.964 -47.469 -21.998  1.00 85.44    -0.354 OA
HETATM   15  C12 1C9 A9001       3.313 -47.257 -20.625  1.00 84.41     0.210 C 
ENDBRANCH   2  14
BRANCH  10  16
HETATM   16  N14 1C9 A9001       1.244 -53.195 -24.736  1.00 86.44    -0.340 N 
HETATM   17  H4  1C9 A9001       2.066 -53.870 -24.622  1.00 85.48     0.167 HD
BRANCH  16  18
HETATM   18  C15 1C9 A9001       0.694 -53.074 -26.043  1.00 87.38     0.035 A 
HETATM   19  C16 1C9 A9001      -0.695 -52.784 -26.247  1.00 88.13     0.056 A 
HETATM   20  C17 1C9 A9001      -1.237 -52.672 -27.548  1.00 88.88     0.074 A 
HETATM   21  C18 1C9 A9001      -0.390 -52.851 -28.674  1.00 88.55     0.138 A 
HETATM   22 CL   1C9 A9001      -2.922 -52.325 -27.733  1.00 89.26    -0.081 Cl
HETATM   23  C19 1C9 A9001       0.995 -53.137 -28.504  1.00 87.62     0.046 A 
HETATM   24  F21 1C9 A9001      -0.888 -52.751 -29.918  1.00 88.92    -0.204 F 
HETATM   25  C20 1C9 A9001       1.535 -53.250 -27.193  1.00 87.82     0.032 A 
ENDBRANCH  16  18
ENDBRANCH  10  16
TORSDOF 4
