MODEL 1
REMARK VINA RESULT:      -8.0      0.000      0.000
REMARK  4 active torsions:
REMARK  status: ('A' for Active; 'I' for Inactive)
REMARK    1  A    between atoms: C1_1  and  N13_22 
REMARK    2  A    between atoms: C2_2  and  O11_20 
REMARK    3  A    between atoms: C10_10  and  N14_11 
REMARK    4  A    between atoms: N14_11  and  C15_12 
ROOT
HETATM    1  C1  1C9 A9001       0.631 -50.817 -20.150  1.00 83.47     0.060 A 
HETATM    2  C2  1C9 A9001       0.077 -51.720 -19.185  1.00 83.68     0.096 A 
HETATM    3  C3  1C9 A9001      -0.503 -52.959 -19.617  1.00 82.47     0.071 A 
HETATM    4  C4  1C9 A9001      -0.554 -53.333 -20.967  1.00 82.50     0.075 A 
HETATM    5  C5  1C9 A9001      -0.004 -52.436 -21.957  1.00 84.12     0.041 A 
HETATM    6  C6  1C9 A9001       0.583 -51.183 -21.526  1.00 83.53     0.049 A 
HETATM    7  N7  1C9 A9001      -1.122 -54.529 -21.280  1.00 81.78    -0.241 NA
HETATM    8  C8  1C9 A9001      -1.157 -54.873 -22.593  1.00 83.59     0.236 A 
HETATM    9  N9  1C9 A9001      -0.681 -54.131 -23.621  1.00 84.30    -0.224 NA
HETATM   10  C10 1C9 A9001      -0.099 -52.905 -23.315  1.00 85.59     0.142 A 
ENDROOT
BRANCH   1  11
HETATM   11  N13 1C9 A9001       1.214 -49.587 -19.764  1.00 82.67    -0.397 N 
HETATM   12  H11 1C9 A9001       0.819 -48.666 -20.139  1.00 85.48     0.156 HD
HETATM   13  H12 1C9 A9001       2.050 -49.577 -19.097  1.00 85.48     0.156 HD
ENDBRANCH   1  11
BRANCH   2  14
HETATM   14  O11 1C9 A9001       0.159 -51.300 -17.860  1.00 85.44    -0.354 OA
HETATM   15  C12 1C9 A9001      -0.742 -51.882 -16.911  1.00 84.41     0.210 C 
ENDBRANCH   2  14
BRANCH  10  16
HETATM   16  N14 1C9 A9001       0.416 -52.088 -24.383  1.00 86.44    -0.340 N 
HETATM   17  H4  1C9 A9001       0.994 -51.234 -24.099  1.00 85.48     0.167 HD
BRANCH  16  18
HETATM   18  C15 1C9 A9001       0.235 -52.301 -25.779  1.00 87.38     0.035 A 
HETATM   19  C16 1C9 A9001      -1.071 -52.318 -26.371  1.00 88.13     0.056 A 
HETATM   20  C17 1C9 A9001      -1.244 -52.537 -27.756  1.00 88.88     0.074 A 
HETATM   21  C18 1C9 A9001      -0.104 -52.748 -28.577  1.00 88.55     0.138 A 
HETATM   22 CL   1C9 A9001      -2.845 -52.551 -28.415  1.00 89.26    -0.081 Cl
HETATM   23  C19 1C9 A9001       1.206 -52.734 -28.020  1.00 87.62     0.046 A 
HETATM   24  F21 1C9 A9001      -0.251 -52.961 -29.896  1.00 88.92    -0.204 F 
HETATM   25  C20 1C9 A9001       1.375 -52.514 -26.624  1.00 87.82     0.032 A 
ENDBRANCH  16  18
ENDBRANCH  10  16
TORSDOF 4
ENDMDL
MODEL 2
REMARK VINA RESULT:      -7.8      1.271      2.629
REMARK  4 active torsions:
REMARK  status: ('A' for Active; 'I' for Inactive)
REMARK    1  A    between atoms: C1_1  and  N13_22 
REMARK    2  A    between atoms: C2_2  and  O11_20 
REMARK    3  A    between atoms: C10_10  and  N14_11 
REMARK    4  A    between atoms: N14_11  and  C15_12 
ROOT
HETATM    1  C1  1C9 A9001      -0.483 -53.197 -20.658  1.00 83.47     0.060 A 
HETATM    2  C2  1C9 A9001      -0.088 -52.080 -19.851  1.00 83.68     0.096 A 
HETATM    3  C3  1C9 A9001       0.769 -51.069 -20.401  1.00 82.47     0.071 A 
HETATM    4  C4  1C9 A9001       1.248 -51.127 -21.717  1.00 82.50     0.075 A 
HETATM    5  C5  1C9 A9001       0.865 -52.246 -22.547  1.00 84.12     0.041 A 
HETATM    6  C6  1C9 A9001      -0.001 -53.270 -21.996  1.00 83.53     0.049 A 
HETATM    7  N7  1C9 A9001       2.055 -50.121 -22.151  1.00 81.78    -0.241 NA
HETATM    8  C8  1C9 A9001       2.503 -50.194 -23.430  1.00 83.59     0.236 A 
HETATM    9  N9  1C9 A9001       2.224 -51.182 -24.313  1.00 84.30    -0.224 NA
HETATM   10  C10 1C9 A9001       1.402 -52.218 -23.882  1.00 85.59     0.142 A 
ENDROOT
BRANCH   1  11
HETATM   11  N13 1C9 A9001      -1.329 -54.213 -20.154  1.00 82.67    -0.397 N 
HETATM   12  H11 1C9 A9001      -2.114 -53.965 -19.471  1.00 85.48     0.156 HD
HETATM   13  H12 1C9 A9001      -1.183 -55.229 -20.455  1.00 85.48     0.156 HD
ENDBRANCH   1  11
BRANCH   2  14
HETATM   14  O11 1C9 A9001      -0.597 -52.072 -18.555  1.00 85.44    -0.354 OA
HETATM   15  C12 1C9 A9001       0.071 -51.270 -17.573  1.00 84.41     0.210 C 
ENDBRANCH   2  14
BRANCH  10  16
HETATM   16  N14 1C9 A9001       1.086 -53.287 -24.795  1.00 86.44    -0.340 N 
HETATM   17  H4  1C9 A9001       1.222 -54.284 -24.432  1.00 85.48     0.167 HD
BRANCH  16  18
HETATM   18  C15 1C9 A9001       0.611 -53.151 -26.129  1.00 87.38     0.035 A 
HETATM   19  C16 1C9 A9001      -0.760 -52.840 -26.409  1.00 88.13     0.056 A 
HETATM   20  C17 1C9 A9001      -1.227 -52.713 -27.737  1.00 88.88     0.074 A 
HETATM   21  C18 1C9 A9001      -0.322 -52.901 -28.815  1.00 88.55     0.138 A 
HETATM   22 CL   1C9 A9001      -2.894 -52.340 -28.014  1.00 89.26    -0.081 Cl
HETATM   23  C19 1C9 A9001       1.047 -53.209 -28.571  1.00 87.62     0.046 A 
HETATM   24  F21 1C9 A9001      -0.749 -52.788 -30.084  1.00 88.92    -0.204 F 
HETATM   25  C20 1C9 A9001       1.512 -53.336 -27.232  1.00 87.82     0.032 A 
ENDBRANCH  16  18
ENDBRANCH  10  16
TORSDOF 4
ENDMDL
MODEL 3
REMARK VINA RESULT:      -7.7      1.568      3.102
REMARK  4 active torsions:
REMARK  status: ('A' for Active; 'I' for Inactive)
REMARK    1  A    between atoms: C1_1  and  N13_22 
REMARK    2  A    between atoms: C2_2  and  O11_20 
REMARK    3  A    between atoms: C10_10  and  N14_11 
REMARK    4  A    between atoms: N14_11  and  C15_12 
ROOT
HETATM    1  C1  1C9 A9001      -0.264 -53.234 -20.795  1.00 83.47     0.060 A 
HETATM    2  C2  1C9 A9001       0.005 -52.243 -19.795  1.00 83.68     0.096 A 
HETATM    3  C3  1C9 A9001       0.765 -51.074 -20.134  1.00 82.47     0.071 A 
HETATM    4  C4  1C9 A9001       1.265 -50.853 -21.424  1.00 82.50     0.075 A 
HETATM    5  C5  1C9 A9001       1.007 -51.841 -22.447  1.00 84.12     0.041 A 
HETATM    6  C6  1C9 A9001       0.240 -53.023 -22.110  1.00 83.53     0.049 A 
HETATM    7  N7  1C9 A9001       1.973 -49.714 -21.651  1.00 81.78    -0.241 NA
HETATM    8  C8  1C9 A9001       2.444 -49.518 -22.909  1.00 83.59     0.236 A 
HETATM    9  N9  1C9 A9001       2.277 -50.357 -23.959  1.00 84.30    -0.224 NA
HETATM   10  C10 1C9 A9001       1.557 -51.527 -23.740  1.00 85.59     0.142 A 
ENDROOT
BRANCH   1  11
HETATM   11  N13 1C9 A9001      -1.012 -54.399 -20.502  1.00 82.67    -0.397 N 
HETATM   12  H11 1C9 A9001      -1.062 -55.196 -21.214  1.00 85.48     0.156 HD
HETATM   13  H12 1C9 A9001      -1.526 -54.483 -19.568  1.00 85.48     0.156 HD
ENDBRANCH   1  11
BRANCH   2  14
HETATM   14  O11 1C9 A9001      -0.519 -52.513 -18.533  1.00 85.44    -0.354 OA
HETATM   15  C12 1C9 A9001      -0.322 -51.541 -17.499  1.00 84.41     0.210 C 
ENDBRANCH   2  14
BRANCH  10  16
HETATM   16  N14 1C9 A9001       1.362 -52.443 -24.834  1.00 86.44    -0.340 N 
HETATM   17  H4  1C9 A9001       2.084 -53.226 -24.940  1.00 85.48     0.167 HD
BRANCH  16  18
HETATM   18  C15 1C9 A9001       0.307 -52.414 -25.789  1.00 87.38     0.035 A 
HETATM   19  C16 1C9 A9001       0.546 -52.672 -27.178  1.00 88.13     0.056 A 
HETATM   20  C17 1C9 A9001      -0.506 -52.635 -28.122  1.00 88.88     0.074 A 
HETATM   21  C18 1C9 A9001      -1.824 -52.333 -27.686  1.00 88.55     0.138 A 
HETATM   22 CL   1C9 A9001      -0.157 -52.951 -29.788  1.00 89.26    -0.081 Cl
HETATM   23  C19 1C9 A9001      -2.094 -52.074 -26.312  1.00 87.62     0.046 A 
HETATM   24  F21 1C9 A9001      -2.835 -52.290 -28.570  1.00 88.92    -0.204 F 
HETATM   25  C20 1C9 A9001      -1.032 -52.112 -25.366  1.00 87.82     0.032 A 
ENDBRANCH  16  18
ENDBRANCH  10  16
TORSDOF 4
ENDMDL
MODEL 4
REMARK VINA RESULT:      -7.6      3.237      4.256
REMARK  4 active torsions:
REMARK  status: ('A' for Active; 'I' for Inactive)
REMARK    1  A    between atoms: C1_1  and  N13_22 
REMARK    2  A    between atoms: C2_2  and  O11_20 
REMARK    3  A    between atoms: C10_10  and  N14_11 
REMARK    4  A    between atoms: N14_11  and  C15_12 
ROOT
HETATM    1  C1  1C9 A9001       5.010 -52.006 -23.886  1.00 83.47     0.060 A 
HETATM    2  C2  1C9 A9001       5.156 -51.071 -22.809  1.00 83.68     0.096 A 
HETATM    3  C3  1C9 A9001       4.011 -50.689 -22.034  1.00 82.47     0.071 A 
HETATM    4  C4  1C9 A9001       2.730 -51.197 -22.288  1.00 82.50     0.075 A 
HETATM    5  C5  1C9 A9001       2.559 -52.139 -23.371  1.00 84.12     0.041 A 
HETATM    6  C6  1C9 A9001       3.713 -52.529 -24.157  1.00 83.53     0.049 A 
HETATM    7  N7  1C9 A9001       1.705 -50.777 -21.499  1.00 81.78    -0.241 NA
HETATM    8  C8  1C9 A9001       0.473 -51.286 -21.760  1.00 83.59     0.236 A 
HETATM    9  N9  1C9 A9001       0.172 -52.172 -22.739  1.00 84.30    -0.224 NA
HETATM   10  C10 1C9 A9001       1.210 -52.608 -23.555  1.00 85.59     0.142 A 
ENDROOT
BRANCH   1  11
HETATM   11  N13 1C9 A9001       6.115 -52.411 -24.671  1.00 82.67    -0.397 N 
HETATM   12  H11 1C9 A9001       6.893 -53.001 -24.235  1.00 85.48     0.156 HD
HETATM   13  H12 1C9 A9001       6.172 -52.127 -25.701  1.00 85.48     0.156 HD
ENDBRANCH   1  11
BRANCH   2  14
HETATM   14  O11 1C9 A9001       6.451 -50.603 -22.599  1.00 85.44    -0.354 OA
HETATM   15  C12 1C9 A9001       6.815 -50.199 -21.274  1.00 84.41     0.210 C 
ENDBRANCH   2  14
BRANCH  10  16
HETATM   16  N14 1C9 A9001       0.925 -53.549 -24.608  1.00 86.44    -0.340 N 
HETATM   17  H4  1C9 A9001       1.057 -54.585 -24.375  1.00 85.48     0.167 HD
BRANCH  16  18
HETATM   18  C15 1C9 A9001       0.487 -53.241 -25.926  1.00 87.38     0.035 A 
HETATM   19  C16 1C9 A9001      -0.889 -52.959 -26.212  1.00 88.13     0.056 A 
HETATM   20  C17 1C9 A9001      -1.319 -52.661 -27.525  1.00 88.88     0.074 A 
HETATM   21  C18 1C9 A9001      -0.370 -52.642 -28.582  1.00 88.55     0.138 A 
HETATM   22 CL   1C9 A9001      -2.994 -52.333 -27.811  1.00 89.26    -0.081 Cl
HETATM   23  C19 1C9 A9001       1.005 -52.916 -28.330  1.00 87.62     0.046 A 
HETATM   24  F21 1C9 A9001      -0.762 -52.364 -29.837  1.00 88.92    -0.204 F 
HETATM   25  C20 1C9 A9001       1.432 -53.216 -27.007  1.00 87.82     0.032 A 
ENDBRANCH  16  18
ENDBRANCH  10  16
TORSDOF 4
ENDMDL
MODEL 5
REMARK VINA RESULT:      -7.5      5.193      8.730
REMARK  4 active torsions:
REMARK  status: ('A' for Active; 'I' for Inactive)
REMARK    1  A    between atoms: C1_1  and  N13_22 
REMARK    2  A    between atoms: C2_2  and  O11_20 
REMARK    3  A    between atoms: C10_10  and  N14_11 
REMARK    4  A    between atoms: N14_11  and  C15_12 
ROOT
HETATM    1  C1  1C9 A9001      -1.109 -54.245 -21.999  1.00 83.47     0.060 A 
HETATM    2  C2  1C9 A9001      -0.292 -53.499 -22.911  1.00 83.68     0.096 A 
HETATM    3  C3  1C9 A9001       0.543 -52.441 -22.420  1.00 82.47     0.071 A 
HETATM    4  C4  1C9 A9001       0.597 -52.097 -21.062  1.00 82.50     0.075 A 
HETATM    5  C5  1C9 A9001      -0.220 -52.835 -20.126  1.00 84.12     0.041 A 
HETATM    6  C6  1C9 A9001      -1.066 -53.905 -20.617  1.00 83.53     0.049 A 
HETATM    7  N7  1C9 A9001       1.421 -51.081 -20.690  1.00 81.78    -0.241 NA
HETATM    8  C8  1C9 A9001       1.461 -50.768 -19.369  1.00 83.59     0.236 A 
HETATM    9  N9  1C9 A9001       0.751 -51.374 -18.388  1.00 84.30    -0.224 NA
HETATM   10  C10 1C9 A9001      -0.097 -52.414 -18.755  1.00 85.59     0.142 A 
ENDROOT
BRANCH   1  11
HETATM   11  N13 1C9 A9001      -1.944 -55.298 -22.444  1.00 82.67    -0.397 N 
HETATM   12  H11 1C9 A9001      -2.429 -55.933 -21.733  1.00 85.48     0.156 HD
HETATM   13  H12 1C9 A9001      -2.090 -55.458 -23.492  1.00 85.48     0.156 HD
ENDBRANCH   1  11
BRANCH   2  14
HETATM   14  O11 1C9 A9001      -0.382 -53.886 -24.246  1.00 85.44    -0.354 OA
HETATM   15  C12 1C9 A9001      -0.631 -52.873 -25.227  1.00 84.41     0.210 C 
ENDBRANCH   2  14
BRANCH  10  16
HETATM   16  N14 1C9 A9001      -0.869 -53.080 -17.738  1.00 86.44    -0.340 N 
HETATM   17  H4  1C9 A9001      -0.630 -54.105 -17.547  1.00 85.48     0.167 HD
BRANCH  16  18
HETATM   18  C15 1C9 A9001      -1.917 -52.513 -16.959  1.00 87.38     0.035 A 
HETATM   19  C16 1C9 A9001      -1.696 -51.370 -16.123  1.00 88.13     0.056 A 
HETATM   20  C17 1C9 A9001      -2.740 -50.817 -15.347  1.00 88.88     0.074 A 
HETATM   21  C18 1C9 A9001      -4.032 -51.405 -15.395  1.00 88.55     0.138 A 
HETATM   22 CL   1C9 A9001      -2.412 -49.439 -14.352  1.00 89.26    -0.081 Cl
HETATM   23  C19 1C9 A9001      -4.284 -52.539 -16.219  1.00 87.62     0.046 A 
HETATM   24  F21 1C9 A9001      -5.035 -50.893 -14.662  1.00 88.92    -0.204 F 
HETATM   25  C20 1C9 A9001      -3.230 -53.093 -16.997  1.00 87.82     0.032 A 
ENDBRANCH  16  18
ENDBRANCH  10  16
TORSDOF 4
ENDMDL
MODEL 6
REMARK VINA RESULT:      -7.3      1.612      1.997
REMARK  4 active torsions:
REMARK  status: ('A' for Active; 'I' for Inactive)
REMARK    1  A    between atoms: C1_1  and  N13_22 
REMARK    2  A    between atoms: C2_2  and  O11_20 
REMARK    3  A    between atoms: C10_10  and  N14_11 
REMARK    4  A    between atoms: N14_11  and  C15_12 
ROOT
HETATM    1  C1  1C9 A9001       1.019 -49.782 -19.620  1.00 83.47     0.060 A 
HETATM    2  C2  1C9 A9001       0.600 -50.638 -18.549  1.00 83.68     0.096 A 
HETATM    3  C3  1C9 A9001       0.069 -51.938 -18.840  1.00 82.47     0.071 A 
HETATM    4  C4  1C9 A9001      -0.062 -52.419 -20.150  1.00 82.50     0.075 A 
HETATM    5  C5  1C9 A9001       0.351 -51.571 -21.245  1.00 84.12     0.041 A 
HETATM    6  C6  1C9 A9001       0.888 -50.257 -20.957  1.00 83.53     0.049 A 
HETATM    7  N7  1C9 A9001      -0.575 -53.666 -20.328  1.00 81.78    -0.241 NA
HETATM    8  C8  1C9 A9001      -0.689 -54.114 -21.605  1.00 83.59     0.236 A 
HETATM    9  N9  1C9 A9001      -0.342 -53.427 -22.719  1.00 84.30    -0.224 NA
HETATM   10  C10 1C9 A9001       0.182 -52.150 -22.553  1.00 85.59     0.142 A 
ENDROOT
BRANCH   1  11
HETATM   11  N13 1C9 A9001       1.550 -48.493 -19.375  1.00 82.67    -0.397 N 
HETATM   12  H11 1C9 A9001       1.119 -47.638 -19.851  1.00 85.48     0.156 HD
HETATM   13  H12 1C9 A9001       2.382 -48.375 -18.713  1.00 85.48     0.156 HD
ENDBRANCH   1  11
BRANCH   2  14
HETATM   14  O11 1C9 A9001       0.757 -50.111 -17.270  1.00 85.44    -0.354 OA
HETATM   15  C12 1C9 A9001      -0.395 -50.042 -16.422  1.00 84.41     0.210 C 
ENDBRANCH   2  14
BRANCH  10  16
HETATM   16  N14 1C9 A9001       0.560 -51.391 -23.717  1.00 86.44    -0.340 N 
HETATM   17  H4  1C9 A9001       0.958 -50.413 -23.544  1.00 85.48     0.167 HD
BRANCH  16  18
HETATM   18  C15 1C9 A9001       0.457 -51.808 -25.074  1.00 87.38     0.035 A 
HETATM   19  C16 1C9 A9001       1.618 -52.139 -25.846  1.00 88.13     0.056 A 
HETATM   20  C17 1C9 A9001       1.509 -52.547 -27.195  1.00 88.88     0.074 A 
HETATM   21  C18 1C9 A9001       0.225 -52.627 -27.798  1.00 88.55     0.138 A 
HETATM   22 CL   1C9 A9001       2.946 -52.929 -28.080  1.00 89.26    -0.081 Cl
HETATM   23  C19 1C9 A9001      -0.948 -52.308 -27.056  1.00 87.62     0.046 A 
HETATM   24  F21 1C9 A9001       0.103 -53.010 -29.080  1.00 88.92    -0.204 F 
HETATM   25  C20 1C9 A9001      -0.833 -51.897 -25.699  1.00 87.82     0.032 A 
ENDBRANCH  16  18
ENDBRANCH  10  16
TORSDOF 4
ENDMDL
MODEL 7
REMARK VINA RESULT:      -7.2      2.534      3.291
REMARK  4 active torsions:
REMARK  status: ('A' for Active; 'I' for Inactive)
REMARK    1  A    between atoms: C1_1  and  N13_22 
REMARK    2  A    between atoms: C2_2  and  O11_20 
REMARK    3  A    between atoms: C10_10  and  N14_11 
REMARK    4  A    between atoms: N14_11  and  C15_12 
ROOT
HETATM    1  C1  1C9 A9001       2.939 -49.283 -23.551  1.00 83.47     0.060 A 
HETATM    2  C2  1C9 A9001       2.413 -48.698 -22.352  1.00 83.68     0.096 A 
HETATM    3  C3  1C9 A9001       1.395 -49.384 -21.610  1.00 82.47     0.071 A 
HETATM    4  C4  1C9 A9001       0.880 -50.623 -22.012  1.00 82.50     0.075 A 
HETATM    5  C5  1C9 A9001       1.393 -51.230 -23.219  1.00 84.12     0.041 A 
HETATM    6  C6  1C9 A9001       2.423 -50.542 -23.973  1.00 83.53     0.049 A 
HETATM    7  N7  1C9 A9001      -0.084 -51.198 -21.243  1.00 81.78    -0.241 NA
HETATM    8  C8  1C9 A9001      -0.565 -52.401 -21.649  1.00 83.59     0.236 A 
HETATM    9  N9  1C9 A9001      -0.176 -53.079 -22.754  1.00 84.30    -0.224 NA
HETATM   10  C10 1C9 A9001       0.807 -52.502 -23.551  1.00 85.59     0.142 A 
ENDROOT
BRANCH   1  11
HETATM   11  N13 1C9 A9001       3.946 -48.640 -24.309  1.00 82.67    -0.397 N 
HETATM   12  H11 1C9 A9001       4.900 -49.107 -24.436  1.00 85.48     0.156 HD
HETATM   13  H12 1C9 A9001       3.753 -47.687 -24.755  1.00 85.48     0.156 HD
ENDBRANCH   1  11
BRANCH   2  14
HETATM   14  O11 1C9 A9001       2.964 -47.469 -21.998  1.00 85.44    -0.354 OA
HETATM   15  C12 1C9 A9001       3.313 -47.257 -20.625  1.00 84.41     0.210 C 
ENDBRANCH   2  14
BRANCH  10  16
HETATM   16  N14 1C9 A9001       1.244 -53.195 -24.736  1.00 86.44    -0.340 N 
HETATM   17  H4  1C9 A9001       2.066 -53.870 -24.622  1.00 85.48     0.167 HD
BRANCH  16  18
HETATM   18  C15 1C9 A9001       0.694 -53.074 -26.043  1.00 87.38     0.035 A 
HETATM   19  C16 1C9 A9001      -0.695 -52.784 -26.247  1.00 88.13     0.056 A 
HETATM   20  C17 1C9 A9001      -1.237 -52.672 -27.548  1.00 88.88     0.074 A 
HETATM   21  C18 1C9 A9001      -0.390 -52.851 -28.674  1.00 88.55     0.138 A 
HETATM   22 CL   1C9 A9001      -2.922 -52.325 -27.733  1.00 89.26    -0.081 Cl
HETATM   23  C19 1C9 A9001       0.995 -53.137 -28.504  1.00 87.62     0.046 A 
HETATM   24  F21 1C9 A9001      -0.888 -52.751 -29.918  1.00 88.92    -0.204 F 
HETATM   25  C20 1C9 A9001       1.535 -53.250 -27.193  1.00 87.82     0.032 A 
ENDBRANCH  16  18
ENDBRANCH  10  16
TORSDOF 4
ENDMDL
MODEL 8
REMARK VINA RESULT:      -6.9      4.721      7.404
REMARK  4 active torsions:
REMARK  status: ('A' for Active; 'I' for Inactive)
REMARK    1  A    between atoms: C1_1  and  N13_22 
REMARK    2  A    between atoms: C2_2  and  O11_20 
REMARK    3  A    between atoms: C10_10  and  N14_11 
REMARK    4  A    between atoms: N14_11  and  C15_12 
ROOT
HETATM    1  C1  1C9 A9001       1.188 -51.836 -25.490  1.00 83.47     0.060 A 
HETATM    2  C2  1C9 A9001       0.833 -53.054 -26.159  1.00 83.68     0.096 A 
HETATM    3  C3  1C9 A9001       0.069 -54.052 -25.467  1.00 82.47     0.071 A 
HETATM    4  C4  1C9 A9001      -0.353 -53.887 -24.141  1.00 82.50     0.075 A 
HETATM    5  C5  1C9 A9001      -0.004 -52.669 -23.447  1.00 84.12     0.041 A 
HETATM    6  C6  1C9 A9001       0.768 -51.657 -24.142  1.00 83.53     0.049 A 
HETATM    7  N7  1C9 A9001      -1.075 -54.888 -23.569  1.00 81.78    -0.241 NA
HETATM    8  C8  1C9 A9001      -1.478 -54.706 -22.285  1.00 83.59     0.236 A 
HETATM    9  N9  1C9 A9001      -1.222 -53.618 -21.520  1.00 84.30    -0.224 NA
HETATM   10  C10 1C9 A9001      -0.482 -52.588 -22.092  1.00 85.59     0.142 A 
ENDROOT
BRANCH   1  11
HETATM   11  N13 1C9 A9001       1.938 -50.827 -26.139  1.00 82.67    -0.397 N 
HETATM   12  H11 1C9 A9001       2.738 -50.339 -25.622  1.00 85.48     0.156 HD
HETATM   13  H12 1C9 A9001       1.706 -50.551 -27.146  1.00 85.48     0.156 HD
ENDBRANCH   1  11
BRANCH   2  14
HETATM   14  O11 1C9 A9001       1.274 -53.161 -27.475  1.00 85.44    -0.354 OA
HETATM   15  C12 1C9 A9001       0.292 -53.179 -28.517  1.00 84.41     0.210 C 
ENDBRANCH   2  14
BRANCH  10  16
HETATM   16  N14 1C9 A9001      -0.189 -51.417 -21.306  1.00 86.44    -0.340 N 
HETATM   17  H4  1C9 A9001      -0.786 -50.549 -21.496  1.00 85.48     0.167 HD
BRANCH  16  18
HETATM   18  C15 1C9 A9001       0.813 -51.296 -20.303  1.00 87.38     0.035 A 
HETATM   19  C16 1C9 A9001       0.475 -51.065 -18.929  1.00 88.13     0.056 A 
HETATM   20  C17 1C9 A9001       1.476 -50.940 -17.939  1.00 88.88     0.074 A 
HETATM   21  C18 1C9 A9001       2.842 -51.042 -18.312  1.00 88.55     0.138 A 
HETATM   22 CL   1C9 A9001       1.007 -50.657 -16.297  1.00 89.26    -0.081 Cl
HETATM   23  C19 1C9 A9001       3.211 -51.273 -19.668  1.00 87.62     0.046 A 
HETATM   24  F21 1C9 A9001       3.807 -50.921 -17.384  1.00 88.92    -0.204 F 
HETATM   25  C20 1C9 A9001       2.200 -51.398 -20.661  1.00 87.82     0.032 A 
ENDBRANCH  16  18
ENDBRANCH  10  16
TORSDOF 4
ENDMDL
MODEL 9
REMARK VINA RESULT:      -6.8      1.907      2.326
REMARK  4 active torsions:
REMARK  status: ('A' for Active; 'I' for Inactive)
REMARK    1  A    between atoms: C1_1  and  N13_22 
REMARK    2  A    between atoms: C2_2  and  O11_20 
REMARK    3  A    between atoms: C10_10  and  N14_11 
REMARK    4  A    between atoms: N14_11  and  C15_12 
ROOT
HETATM    1  C1  1C9 A9001       1.812 -49.730 -21.110  1.00 83.47     0.060 A 
HETATM    2  C2  1C9 A9001       2.062 -50.273 -19.807  1.00 83.68     0.096 A 
HETATM    3  C3  1C9 A9001       1.600 -51.592 -19.483  1.00 82.47     0.071 A 
HETATM    4  C4  1C9 A9001       0.901 -52.389 -20.401  1.00 82.50     0.075 A 
HETATM    5  C5  1C9 A9001       0.636 -51.859 -21.719  1.00 84.12     0.041 A 
HETATM    6  C6  1C9 A9001       1.101 -50.527 -22.051  1.00 83.53     0.049 A 
HETATM    7  N7  1C9 A9001       0.504 -53.627 -20.003  1.00 81.78    -0.241 NA
HETATM    8  C8  1C9 A9001      -0.167 -54.384 -20.909  1.00 83.59     0.236 A 
HETATM    9  N9  1C9 A9001      -0.481 -54.014 -22.174  1.00 84.30    -0.224 NA
HETATM   10  C10 1C9 A9001      -0.084 -52.749 -22.593  1.00 85.59     0.142 A 
ENDROOT
BRANCH   1  11
HETATM   11  N13 1C9 A9001       2.254 -48.434 -21.469  1.00 82.67    -0.397 N 
HETATM   12  H11 1C9 A9001       3.275 -48.275 -21.747  1.00 85.48     0.156 HD
HETATM   13  H12 1C9 A9001       1.567 -47.614 -21.463  1.00 85.48     0.156 HD
ENDBRANCH   1  11
BRANCH   2  14
HETATM   14  O11 1C9 A9001       2.763 -49.441 -18.938  1.00 85.44    -0.354 OA
HETATM   15  C12 1C9 A9001       4.080 -49.839 -18.539  1.00 84.41     0.210 C 
ENDBRANCH   2  14
BRANCH  10  16
HETATM   16  N14 1C9 A9001      -0.403 -52.321 -23.931  1.00 86.44    -0.340 N 
HETATM   17  H4  1C9 A9001      -1.333 -51.808 -24.062  1.00 85.48     0.167 HD
BRANCH  16  18
HETATM   18  C15 1C9 A9001       0.391 -52.513 -25.096  1.00 87.38     0.035 A 
HETATM   19  C16 1C9 A9001      -0.185 -52.491 -26.408  1.00 88.13     0.056 A 
HETATM   20  C17 1C9 A9001       0.609 -52.689 -27.561  1.00 88.88     0.074 A 
HETATM   21  C18 1C9 A9001       2.003 -52.916 -27.416  1.00 88.55     0.138 A 
HETATM   22 CL   1C9 A9001      -0.144 -52.656 -29.119  1.00 89.26    -0.081 Cl
HETATM   23  C19 1C9 A9001       2.607 -52.941 -26.127  1.00 87.62     0.046 A 
HETATM   24  F21 1C9 A9001       2.772 -53.109 -28.501  1.00 88.92    -0.204 F 
HETATM   25  C20 1C9 A9001       1.803 -52.743 -24.969  1.00 87.82     0.032 A 
ENDBRANCH  16  18
ENDBRANCH  10  16
TORSDOF 4
ENDMDL
