REMARK VINA RESULT:      -7.7      1.568      3.102
REMARK  4 active torsions:
REMARK  status: ('A' for Active; 'I' for Inactive)
REMARK    1  A    between atoms: C1_1  and  N13_22 
REMARK    2  A    between atoms: C2_2  and  O11_20 
REMARK    3  A    between atoms: C10_10  and  N14_11 
REMARK    4  A    between atoms: N14_11  and  C15_12 
ROOT
HETATM    1  C1  1C9 A9001      -0.264 -53.234 -20.795  1.00 83.47     0.060 A 
HETATM    2  C2  1C9 A9001       0.005 -52.243 -19.795  1.00 83.68     0.096 A 
HETATM    3  C3  1C9 A9001       0.765 -51.074 -20.134  1.00 82.47     0.071 A 
HETATM    4  C4  1C9 A9001       1.265 -50.853 -21.424  1.00 82.50     0.075 A 
HETATM    5  C5  1C9 A9001       1.007 -51.841 -22.447  1.00 84.12     0.041 A 
HETATM    6  C6  1C9 A9001       0.240 -53.023 -22.110  1.00 83.53     0.049 A 
HETATM    7  N7  1C9 A9001       1.973 -49.714 -21.651  1.00 81.78    -0.241 NA
HETATM    8  C8  1C9 A9001       2.444 -49.518 -22.909  1.00 83.59     0.236 A 
HETATM    9  N9  1C9 A9001       2.277 -50.357 -23.959  1.00 84.30    -0.224 NA
HETATM   10  C10 1C9 A9001       1.557 -51.527 -23.740  1.00 85.59     0.142 A 
ENDROOT
BRANCH   1  11
HETATM   11  N13 1C9 A9001      -1.012 -54.399 -20.502  1.00 82.67    -0.397 N 
HETATM   12  H11 1C9 A9001      -1.062 -55.196 -21.214  1.00 85.48     0.156 HD
HETATM   13  H12 1C9 A9001      -1.526 -54.483 -19.568  1.00 85.48     0.156 HD
ENDBRANCH   1  11
BRANCH   2  14
HETATM   14  O11 1C9 A9001      -0.519 -52.513 -18.533  1.00 85.44    -0.354 OA
HETATM   15  C12 1C9 A9001      -0.322 -51.541 -17.499  1.00 84.41     0.210 C 
ENDBRANCH   2  14
BRANCH  10  16
HETATM   16  N14 1C9 A9001       1.362 -52.443 -24.834  1.00 86.44    -0.340 N 
HETATM   17  H4  1C9 A9001       2.084 -53.226 -24.940  1.00 85.48     0.167 HD
BRANCH  16  18
HETATM   18  C15 1C9 A9001       0.307 -52.414 -25.789  1.00 87.38     0.035 A 
HETATM   19  C16 1C9 A9001       0.546 -52.672 -27.178  1.00 88.13     0.056 A 
HETATM   20  C17 1C9 A9001      -0.506 -52.635 -28.122  1.00 88.88     0.074 A 
HETATM   21  C18 1C9 A9001      -1.824 -52.333 -27.686  1.00 88.55     0.138 A 
HETATM   22 CL   1C9 A9001      -0.157 -52.951 -29.788  1.00 89.26    -0.081 Cl
HETATM   23  C19 1C9 A9001      -2.094 -52.074 -26.312  1.00 87.62     0.046 A 
HETATM   24  F21 1C9 A9001      -2.835 -52.290 -28.570  1.00 88.92    -0.204 F 
HETATM   25  C20 1C9 A9001      -1.032 -52.112 -25.366  1.00 87.82     0.032 A 
ENDBRANCH  16  18
ENDBRANCH  10  16
TORSDOF 4
