REMARK VINA RESULT:      -7.6      3.237      4.256
REMARK  4 active torsions:
REMARK  status: ('A' for Active; 'I' for Inactive)
REMARK    1  A    between atoms: C1_1  and  N13_22 
REMARK    2  A    between atoms: C2_2  and  O11_20 
REMARK    3  A    between atoms: C10_10  and  N14_11 
REMARK    4  A    between atoms: N14_11  and  C15_12 
ROOT
HETATM    1  C1  1C9 A9001       5.010 -52.006 -23.886  1.00 83.47     0.060 A 
HETATM    2  C2  1C9 A9001       5.156 -51.071 -22.809  1.00 83.68     0.096 A 
HETATM    3  C3  1C9 A9001       4.011 -50.689 -22.034  1.00 82.47     0.071 A 
HETATM    4  C4  1C9 A9001       2.730 -51.197 -22.288  1.00 82.50     0.075 A 
HETATM    5  C5  1C9 A9001       2.559 -52.139 -23.371  1.00 84.12     0.041 A 
HETATM    6  C6  1C9 A9001       3.713 -52.529 -24.157  1.00 83.53     0.049 A 
HETATM    7  N7  1C9 A9001       1.705 -50.777 -21.499  1.00 81.78    -0.241 NA
HETATM    8  C8  1C9 A9001       0.473 -51.286 -21.760  1.00 83.59     0.236 A 
HETATM    9  N9  1C9 A9001       0.172 -52.172 -22.739  1.00 84.30    -0.224 NA
HETATM   10  C10 1C9 A9001       1.210 -52.608 -23.555  1.00 85.59     0.142 A 
ENDROOT
BRANCH   1  11
HETATM   11  N13 1C9 A9001       6.115 -52.411 -24.671  1.00 82.67    -0.397 N 
HETATM   12  H11 1C9 A9001       6.893 -53.001 -24.235  1.00 85.48     0.156 HD
HETATM   13  H12 1C9 A9001       6.172 -52.127 -25.701  1.00 85.48     0.156 HD
ENDBRANCH   1  11
BRANCH   2  14
HETATM   14  O11 1C9 A9001       6.451 -50.603 -22.599  1.00 85.44    -0.354 OA
HETATM   15  C12 1C9 A9001       6.815 -50.199 -21.274  1.00 84.41     0.210 C 
ENDBRANCH   2  14
BRANCH  10  16
HETATM   16  N14 1C9 A9001       0.925 -53.549 -24.608  1.00 86.44    -0.340 N 
HETATM   17  H4  1C9 A9001       1.057 -54.585 -24.375  1.00 85.48     0.167 HD
BRANCH  16  18
HETATM   18  C15 1C9 A9001       0.487 -53.241 -25.926  1.00 87.38     0.035 A 
HETATM   19  C16 1C9 A9001      -0.889 -52.959 -26.212  1.00 88.13     0.056 A 
HETATM   20  C17 1C9 A9001      -1.319 -52.661 -27.525  1.00 88.88     0.074 A 
HETATM   21  C18 1C9 A9001      -0.370 -52.642 -28.582  1.00 88.55     0.138 A 
HETATM   22 CL   1C9 A9001      -2.994 -52.333 -27.811  1.00 89.26    -0.081 Cl
HETATM   23  C19 1C9 A9001       1.005 -52.916 -28.330  1.00 87.62     0.046 A 
HETATM   24  F21 1C9 A9001      -0.762 -52.364 -29.837  1.00 88.92    -0.204 F 
HETATM   25  C20 1C9 A9001       1.432 -53.216 -27.007  1.00 87.82     0.032 A 
ENDBRANCH  16  18
ENDBRANCH  10  16
TORSDOF 4
