REMARK VINA RESULT:      -6.9      4.721      7.404
REMARK  4 active torsions:
REMARK  status: ('A' for Active; 'I' for Inactive)
REMARK    1  A    between atoms: C1_1  and  N13_22 
REMARK    2  A    between atoms: C2_2  and  O11_20 
REMARK    3  A    between atoms: C10_10  and  N14_11 
REMARK    4  A    between atoms: N14_11  and  C15_12 
ROOT
HETATM    1  C1  1C9 A9001       1.188 -51.836 -25.490  1.00 83.47     0.060 A 
HETATM    2  C2  1C9 A9001       0.833 -53.054 -26.159  1.00 83.68     0.096 A 
HETATM    3  C3  1C9 A9001       0.069 -54.052 -25.467  1.00 82.47     0.071 A 
HETATM    4  C4  1C9 A9001      -0.353 -53.887 -24.141  1.00 82.50     0.075 A 
HETATM    5  C5  1C9 A9001      -0.004 -52.669 -23.447  1.00 84.12     0.041 A 
HETATM    6  C6  1C9 A9001       0.768 -51.657 -24.142  1.00 83.53     0.049 A 
HETATM    7  N7  1C9 A9001      -1.075 -54.888 -23.569  1.00 81.78    -0.241 NA
HETATM    8  C8  1C9 A9001      -1.478 -54.706 -22.285  1.00 83.59     0.236 A 
HETATM    9  N9  1C9 A9001      -1.222 -53.618 -21.520  1.00 84.30    -0.224 NA
HETATM   10  C10 1C9 A9001      -0.482 -52.588 -22.092  1.00 85.59     0.142 A 
ENDROOT
BRANCH   1  11
HETATM   11  N13 1C9 A9001       1.938 -50.827 -26.139  1.00 82.67    -0.397 N 
HETATM   12  H11 1C9 A9001       2.738 -50.339 -25.622  1.00 85.48     0.156 HD
HETATM   13  H12 1C9 A9001       1.706 -50.551 -27.146  1.00 85.48     0.156 HD
ENDBRANCH   1  11
BRANCH   2  14
HETATM   14  O11 1C9 A9001       1.274 -53.161 -27.475  1.00 85.44    -0.354 OA
HETATM   15  C12 1C9 A9001       0.292 -53.179 -28.517  1.00 84.41     0.210 C 
ENDBRANCH   2  14
BRANCH  10  16
HETATM   16  N14 1C9 A9001      -0.189 -51.417 -21.306  1.00 86.44    -0.340 N 
HETATM   17  H4  1C9 A9001      -0.786 -50.549 -21.496  1.00 85.48     0.167 HD
BRANCH  16  18
HETATM   18  C15 1C9 A9001       0.813 -51.296 -20.303  1.00 87.38     0.035 A 
HETATM   19  C16 1C9 A9001       0.475 -51.065 -18.929  1.00 88.13     0.056 A 
HETATM   20  C17 1C9 A9001       1.476 -50.940 -17.939  1.00 88.88     0.074 A 
HETATM   21  C18 1C9 A9001       2.842 -51.042 -18.312  1.00 88.55     0.138 A 
HETATM   22 CL   1C9 A9001       1.007 -50.657 -16.297  1.00 89.26    -0.081 Cl
HETATM   23  C19 1C9 A9001       3.211 -51.273 -19.668  1.00 87.62     0.046 A 
HETATM   24  F21 1C9 A9001       3.807 -50.921 -17.384  1.00 88.92    -0.204 F 
HETATM   25  C20 1C9 A9001       2.200 -51.398 -20.661  1.00 87.82     0.032 A 
ENDBRANCH  16  18
ENDBRANCH  10  16
TORSDOF 4
