REMARK VINA RESULT:      -7.8      1.271      2.629
REMARK  4 active torsions:
REMARK  status: ('A' for Active; 'I' for Inactive)
REMARK    1  A    between atoms: C1_1  and  N13_22 
REMARK    2  A    between atoms: C2_2  and  O11_20 
REMARK    3  A    between atoms: C10_10  and  N14_11 
REMARK    4  A    between atoms: N14_11  and  C15_12 
ROOT
HETATM    1  C1  1C9 A9001      -0.483 -53.197 -20.658  1.00 83.47     0.060 A 
HETATM    2  C2  1C9 A9001      -0.088 -52.080 -19.851  1.00 83.68     0.096 A 
HETATM    3  C3  1C9 A9001       0.769 -51.069 -20.401  1.00 82.47     0.071 A 
HETATM    4  C4  1C9 A9001       1.248 -51.127 -21.717  1.00 82.50     0.075 A 
HETATM    5  C5  1C9 A9001       0.865 -52.246 -22.547  1.00 84.12     0.041 A 
HETATM    6  C6  1C9 A9001      -0.001 -53.270 -21.996  1.00 83.53     0.049 A 
HETATM    7  N7  1C9 A9001       2.055 -50.121 -22.151  1.00 81.78    -0.241 NA
HETATM    8  C8  1C9 A9001       2.503 -50.194 -23.430  1.00 83.59     0.236 A 
HETATM    9  N9  1C9 A9001       2.224 -51.182 -24.313  1.00 84.30    -0.224 NA
HETATM   10  C10 1C9 A9001       1.402 -52.218 -23.882  1.00 85.59     0.142 A 
ENDROOT
BRANCH   1  11
HETATM   11  N13 1C9 A9001      -1.329 -54.213 -20.154  1.00 82.67    -0.397 N 
HETATM   12  H11 1C9 A9001      -2.114 -53.965 -19.471  1.00 85.48     0.156 HD
HETATM   13  H12 1C9 A9001      -1.183 -55.229 -20.455  1.00 85.48     0.156 HD
ENDBRANCH   1  11
BRANCH   2  14
HETATM   14  O11 1C9 A9001      -0.597 -52.072 -18.555  1.00 85.44    -0.354 OA
HETATM   15  C12 1C9 A9001       0.071 -51.270 -17.573  1.00 84.41     0.210 C 
ENDBRANCH   2  14
BRANCH  10  16
HETATM   16  N14 1C9 A9001       1.086 -53.287 -24.795  1.00 86.44    -0.340 N 
HETATM   17  H4  1C9 A9001       1.222 -54.284 -24.432  1.00 85.48     0.167 HD
BRANCH  16  18
HETATM   18  C15 1C9 A9001       0.611 -53.151 -26.129  1.00 87.38     0.035 A 
HETATM   19  C16 1C9 A9001      -0.760 -52.840 -26.409  1.00 88.13     0.056 A 
HETATM   20  C17 1C9 A9001      -1.227 -52.713 -27.737  1.00 88.88     0.074 A 
HETATM   21  C18 1C9 A9001      -0.322 -52.901 -28.815  1.00 88.55     0.138 A 
HETATM   22 CL   1C9 A9001      -2.894 -52.340 -28.014  1.00 89.26    -0.081 Cl
HETATM   23  C19 1C9 A9001       1.047 -53.209 -28.571  1.00 87.62     0.046 A 
HETATM   24  F21 1C9 A9001      -0.749 -52.788 -30.084  1.00 88.92    -0.204 F 
HETATM   25  C20 1C9 A9001       1.512 -53.336 -27.232  1.00 87.82     0.032 A 
ENDBRANCH  16  18
ENDBRANCH  10  16
TORSDOF 4
